[root]
type=Root
children=system
eventq_index=0
full_system=true
sim_quantum=0
time_sync_enable=false
time_sync_period=100000000000
time_sync_spin_threshold=100000000

[system]
type=ArmSystem
children=bridge clk_domain cpu0 cpu1 cpu2 cpu3 cpu_clk_domain cpu_voltage_domain dvfs_handler intrctrl iobus iocache l3 mem_ctrls membus pci_ide realview switch_cpus0 switch_cpus1 switch_cpus2 switch_cpus3 terminal tol3bus vncserver voltage_domain workload
auto_reset_addr=true
byte_order=little
cache_line_size=64
eventq_index=0
exit_on_work_items=false
gic_cpu_addr=738205696
have_crypto=false
have_large_asid_64=false
have_lpae=true
have_lse=true
have_pan=true
have_secel2=true
have_security=false
have_sve=true
have_tme=false
have_vhe=false
have_virtualization=false
highest_el_is_64=true
init_param=0
m5ops_base=268500992
mem_mode=atomic
mem_ranges=2147483648:70866960384
memories=system.mem_ctrls.dram system.realview.bootmem system.realview.flash0 system.realview.flash1 system.realview.non_trusted_sram system.realview.trusted_sram system.realview.vram
mmap_using_noreserve=true
multi_proc=true
multi_thread=false
num_work_ids=16
phys_addr_range_64=40
readfile=
redirect_paths=
reset_addr=0
semihosting=Null
shared_backstore=
sve_vl=1
symbolfile=
thermal_components=
thermal_model=Null
work_begin_ckpt_count=0
work_begin_cpu_id_exit=-1
work_begin_exit_count=0
work_cpus_ckpt_count=0
work_end_ckpt_count=0
work_end_exit_count=0
work_item_id=-1
workload=system.workload
system_port=system.membus.cpu_side_ports[0]

[system.bridge]
type=Bridge
children=power_state
clk_domain=system.clk_domain
delay=50000
eventq_index=0
power_model=
power_state=system.bridge.power_state
ranges=201326592:536870912 788529152:2147483648
req_size=16
resp_size=16
cpu_side_port=system.membus.mem_side_ports[0]
mem_side_port=system.iobus.cpu_side_ports[0]

[system.bridge.power_state]
type=PowerState
clk_gate_bins=20
clk_gate_max=1000000000000
clk_gate_min=1000
default_state=UNDEFINED
eventq_index=0
leaders=
possible_states=

[system.clk_domain]
type=SrcClockDomain
clock=1000
domain_id=-1
eventq_index=0
init_perf_level=0
voltage_domain=system.voltage_domain

[system.cpu0]
type=AtomicSimpleCPU
children=dcache icache interrupts isa l2cache mmu power_state toL2Bus tracer
branchPred=Null
checker=Null
clk_domain=system.cpu_clk_domain
cpu_id=0
do_checkpoint_insts=true
do_statistics_insts=true
eventq_index=0
function_trace=false
function_trace_start=0
interrupts=system.cpu0.interrupts
isa=system.cpu0.isa
max_insts_all_threads=0
max_insts_any_thread=0
mmu=system.cpu0.mmu
numThreads=1
power_gating_on_idle=false
power_model=
power_state=system.cpu0.power_state
progress_interval=0
pwr_gating_latency=300
simpoint_start_insts=10000000 110000000
simulate_data_stalls=false
simulate_inst_stalls=false
socket_id=0
switched_out=false
syscallRetryLatency=10000
system=system
tracer=system.cpu0.tracer
wait_for_remote_gdb=false
width=1
workload=
dcache_port=system.cpu0.dcache.cpu_side
icache_port=system.cpu0.icache.cpu_side

[system.cpu0.dcache]
type=Cache
children=power_state prefetcher replacement_policy tags
addr_ranges=0:18446744073709551615
assoc=4
clk_domain=system.cpu_clk_domain
clusivity=mostly_incl
compressor=Null
data_latency=4
demand_mshr_reserve=1
eventq_index=0
is_read_only=false
max_miss_count=0
move_contractions=true
mshrs=10
power_model=
power_state=system.cpu0.dcache.power_state
prefetch_on_access=false
prefetcher=system.cpu0.dcache.prefetcher
replace_expansions=true
replacement_policy=system.cpu0.dcache.replacement_policy
response_latency=0
sequential_access=false
size=65536
system=system
tag_latency=4
tags=system.cpu0.dcache.tags
tgts_per_mshr=20
warmup_percentage=0
write_allocator=Null
write_buffers=8
writeback_clean=false
cpu_side=system.cpu0.dcache_port
mem_side=system.cpu0.toL2Bus.cpu_side_ports[1]

[system.cpu0.dcache.power_state]
type=PowerState
clk_gate_bins=20
clk_gate_max=1000000000000
clk_gate_min=1000
default_state=UNDEFINED
eventq_index=0
leaders=
possible_states=

[system.cpu0.dcache.prefetcher]
type=MultiPrefetcher
children=power_state prefetchers0 prefetchers1
block_size=64
clk_domain=system.cpu_clk_domain
eventq_index=0
on_data=true
on_inst=true
on_miss=false
on_read=true
on_write=true
power_model=
power_state=system.cpu0.dcache.prefetcher.power_state
prefetch_on_access=false
prefetchers=system.cpu0.dcache.prefetcher.prefetchers0 system.cpu0.dcache.prefetcher.prefetchers1
sys=system
use_virtual_addresses=false

[system.cpu0.dcache.prefetcher.power_state]
type=PowerState
clk_gate_bins=20
clk_gate_max=1000000000000
clk_gate_min=1000
default_state=UNDEFINED
eventq_index=0
leaders=
possible_states=

[system.cpu0.dcache.prefetcher.prefetchers0]
type=DCPTPrefetcher
children=dcpt power_state
block_size=64
cache_snoop=false
clk_domain=system.cpu_clk_domain
dcpt=system.cpu0.dcache.prefetcher.prefetchers0.dcpt
eventq_index=0
latency=1
max_prefetch_requests_with_pending_translation=32
on_data=true
on_inst=true
on_miss=false
on_read=true
on_write=true
power_model=
power_state=system.cpu0.dcache.prefetcher.prefetchers0.power_state
prefetch_on_access=false
queue_filter=true
queue_size=32
queue_squash=true
sys=system
tag_prefetch=true
throttle_control_percentage=0
use_virtual_addresses=false

[system.cpu0.dcache.prefetcher.prefetchers0.dcpt]
type=DeltaCorrelatingPredictionTables
children=table_indexing_policy table_replacement_policy
delta_bits=12
delta_mask_bits=8
deltas_per_entry=20
eventq_index=0
table_assoc=128
table_entries=128
table_indexing_policy=system.cpu0.dcache.prefetcher.prefetchers0.dcpt.table_indexing_policy
table_replacement_policy=system.cpu0.dcache.prefetcher.prefetchers0.dcpt.table_replacement_policy

[system.cpu0.dcache.prefetcher.prefetchers0.dcpt.table_indexing_policy]
type=SetAssociative
assoc=128
entry_size=1
eventq_index=0
size=128

[system.cpu0.dcache.prefetcher.prefetchers0.dcpt.table_replacement_policy]
type=LRURP
eventq_index=0

[system.cpu0.dcache.prefetcher.prefetchers0.power_state]
type=PowerState
clk_gate_bins=20
clk_gate_max=1000000000000
clk_gate_min=1000
default_state=UNDEFINED
eventq_index=0
leaders=
possible_states=

[system.cpu0.dcache.prefetcher.prefetchers1]
type=TaggedPrefetcher
children=power_state
block_size=64
cache_snoop=false
clk_domain=system.cpu_clk_domain
degree=2
eventq_index=0
latency=1
max_prefetch_requests_with_pending_translation=32
on_data=true
on_inst=true
on_miss=false
on_read=true
on_write=true
power_model=
power_state=system.cpu0.dcache.prefetcher.prefetchers1.power_state
prefetch_on_access=false
queue_filter=true
queue_size=32
queue_squash=true
sys=system
tag_prefetch=true
throttle_control_percentage=0
use_virtual_addresses=false

[system.cpu0.dcache.prefetcher.prefetchers1.power_state]
type=PowerState
clk_gate_bins=20
clk_gate_max=1000000000000
clk_gate_min=1000
default_state=UNDEFINED
eventq_index=0
leaders=
possible_states=

[system.cpu0.dcache.replacement_policy]
type=LRURP
eventq_index=0

[system.cpu0.dcache.tags]
type=BaseSetAssoc
children=indexing_policy power_state
assoc=4
block_size=64
clk_domain=system.cpu_clk_domain
entry_size=64
eventq_index=0
indexing_policy=system.cpu0.dcache.tags.indexing_policy
power_model=
power_state=system.cpu0.dcache.tags.power_state
replacement_policy=system.cpu0.dcache.replacement_policy
sequential_access=false
size=65536
system=system
tag_latency=4
warmup_percentage=0

[system.cpu0.dcache.tags.indexing_policy]
type=SetAssociative
assoc=4
entry_size=64
eventq_index=0
size=65536

[system.cpu0.dcache.tags.power_state]
type=PowerState
clk_gate_bins=20
clk_gate_max=1000000000000
clk_gate_min=1000
default_state=UNDEFINED
eventq_index=0
leaders=
possible_states=

[system.cpu0.icache]
type=Cache
children=power_state replacement_policy tags
addr_ranges=0:18446744073709551615
assoc=4
clk_domain=system.cpu_clk_domain
clusivity=mostly_incl
compressor=Null
data_latency=4
demand_mshr_reserve=1
eventq_index=0
is_read_only=true
max_miss_count=0
move_contractions=true
mshrs=10
power_model=
power_state=system.cpu0.icache.power_state
prefetch_on_access=false
prefetcher=Null
replace_expansions=true
replacement_policy=system.cpu0.icache.replacement_policy
response_latency=0
sequential_access=false
size=32768
system=system
tag_latency=4
tags=system.cpu0.icache.tags
tgts_per_mshr=20
warmup_percentage=0
write_allocator=Null
write_buffers=8
writeback_clean=true
cpu_side=system.cpu0.icache_port
mem_side=system.cpu0.toL2Bus.cpu_side_ports[0]

[system.cpu0.icache.power_state]
type=PowerState
clk_gate_bins=20
clk_gate_max=1000000000000
clk_gate_min=1000
default_state=UNDEFINED
eventq_index=0
leaders=
possible_states=

[system.cpu0.icache.replacement_policy]
type=LRURP
eventq_index=0

[system.cpu0.icache.tags]
type=BaseSetAssoc
children=indexing_policy power_state
assoc=4
block_size=64
clk_domain=system.cpu_clk_domain
entry_size=64
eventq_index=0
indexing_policy=system.cpu0.icache.tags.indexing_policy
power_model=
power_state=system.cpu0.icache.tags.power_state
replacement_policy=system.cpu0.icache.replacement_policy
sequential_access=false
size=32768
system=system
tag_latency=4
warmup_percentage=0

[system.cpu0.icache.tags.indexing_policy]
type=SetAssociative
assoc=4
entry_size=64
eventq_index=0
size=32768

[system.cpu0.icache.tags.power_state]
type=PowerState
clk_gate_bins=20
clk_gate_max=1000000000000
clk_gate_min=1000
default_state=UNDEFINED
eventq_index=0
leaders=
possible_states=

[system.cpu0.interrupts]
type=ArmInterrupts
eventq_index=0

[system.cpu0.isa]
type=ArmISA
decoderFlavor=Generic
eventq_index=0
fpsid=1090793632
id_aa64afr0_el1=0
id_aa64afr1_el1=0
id_aa64dfr0_el1=15790086
id_aa64dfr1_el1=0
id_aa64isar0_el1=268435456
id_aa64isar1_el1=16846864
id_aa64mmfr0_el1=15728642
id_aa64mmfr1_el1=1052672
id_aa64mmfr2_el1=65536
id_isar0=34607377
id_isar1=34677009
id_isar2=555950401
id_isar3=17899825
id_isar4=268501314
id_isar5=285212672
id_isar6=1
id_mmfr0=270536963
id_mmfr1=0
id_mmfr2=19070976
id_mmfr3=34611729
id_mmfr4=0
impdef_nop=false
midr=0
pmu=Null
sve_vl_se=1
system=system

[system.cpu0.l2cache]
type=Cache
children=power_state prefetcher replacement_policy tags
addr_ranges=0:18446744073709551615
assoc=8
clk_domain=system.cpu_clk_domain
clusivity=mostly_incl
compressor=Null
data_latency=12
demand_mshr_reserve=1
eventq_index=0
is_read_only=false
max_miss_count=0
move_contractions=true
mshrs=20
power_model=
power_state=system.cpu0.l2cache.power_state
prefetch_on_access=false
prefetcher=system.cpu0.l2cache.prefetcher
replace_expansions=true
replacement_policy=system.cpu0.l2cache.replacement_policy
response_latency=0
sequential_access=false
size=2097152
system=system
tag_latency=12
tags=system.cpu0.l2cache.tags
tgts_per_mshr=12
warmup_percentage=0
write_allocator=Null
write_buffers=16
writeback_clean=false
cpu_side=system.cpu0.toL2Bus.mem_side_ports[0]
mem_side=system.tol3bus.cpu_side_ports[0]

[system.cpu0.l2cache.power_state]
type=PowerState
clk_gate_bins=20
clk_gate_max=1000000000000
clk_gate_min=1000
default_state=UNDEFINED
eventq_index=0
leaders=
possible_states=

[system.cpu0.l2cache.prefetcher]
type=MultiPrefetcher
children=power_state prefetchers0 prefetchers1
block_size=64
clk_domain=system.cpu_clk_domain
eventq_index=0
on_data=true
on_inst=true
on_miss=false
on_read=true
on_write=true
power_model=
power_state=system.cpu0.l2cache.prefetcher.power_state
prefetch_on_access=false
prefetchers=system.cpu0.l2cache.prefetcher.prefetchers0 system.cpu0.l2cache.prefetcher.prefetchers1
sys=system
use_virtual_addresses=false

[system.cpu0.l2cache.prefetcher.power_state]
type=PowerState
clk_gate_bins=20
clk_gate_max=1000000000000
clk_gate_min=1000
default_state=UNDEFINED
eventq_index=0
leaders=
possible_states=

[system.cpu0.l2cache.prefetcher.prefetchers0]
type=StridePrefetcher
children=power_state table_indexing_policy table_replacement_policy
block_size=64
cache_snoop=false
clk_domain=system.cpu_clk_domain
confidence_counter_bits=3
confidence_threshold=50
degree=4
eventq_index=0
initial_confidence=4
latency=1
max_prefetch_requests_with_pending_translation=32
on_data=true
on_inst=false
on_miss=false
on_read=true
on_write=true
power_model=
power_state=system.cpu0.l2cache.prefetcher.prefetchers0.power_state
prefetch_on_access=false
queue_filter=true
queue_size=32
queue_squash=true
sys=system
table_assoc=4
table_entries=64
table_indexing_policy=system.cpu0.l2cache.prefetcher.prefetchers0.table_indexing_policy
table_replacement_policy=system.cpu0.l2cache.prefetcher.prefetchers0.table_replacement_policy
tag_prefetch=true
throttle_control_percentage=0
use_requestor_id=true
use_virtual_addresses=false

[system.cpu0.l2cache.prefetcher.prefetchers0.power_state]
type=PowerState
clk_gate_bins=20
clk_gate_max=1000000000000
clk_gate_min=1000
default_state=UNDEFINED
eventq_index=0
leaders=
possible_states=

[system.cpu0.l2cache.prefetcher.prefetchers0.table_indexing_policy]
type=StridePrefetcherHashedSetAssociative
assoc=4
entry_size=1
eventq_index=0
size=64

[system.cpu0.l2cache.prefetcher.prefetchers0.table_replacement_policy]
type=RandomRP
eventq_index=0

[system.cpu0.l2cache.prefetcher.prefetchers1]
type=IrregularStreamBufferPrefetcher
children=power_state ps_address_map_cache_indexing_policy ps_address_map_cache_replacement_policy sp_address_map_cache_indexing_policy sp_address_map_cache_replacement_policy training_unit_indexing_policy training_unit_replacement_policy
address_map_cache_assoc=128
address_map_cache_entries=128
block_size=64
cache_snoop=false
chunk_size=256
clk_domain=system.cpu_clk_domain
degree=4
eventq_index=0
latency=1
max_prefetch_requests_with_pending_translation=32
num_counter_bits=2
on_data=true
on_inst=true
on_miss=false
on_read=true
on_write=true
power_model=
power_state=system.cpu0.l2cache.prefetcher.prefetchers1.power_state
prefetch_candidates_per_entry=16
prefetch_on_access=false
ps_address_map_cache_indexing_policy=system.cpu0.l2cache.prefetcher.prefetchers1.ps_address_map_cache_indexing_policy
ps_address_map_cache_replacement_policy=system.cpu0.l2cache.prefetcher.prefetchers1.ps_address_map_cache_replacement_policy
queue_filter=true
queue_size=32
queue_squash=true
sp_address_map_cache_indexing_policy=system.cpu0.l2cache.prefetcher.prefetchers1.sp_address_map_cache_indexing_policy
sp_address_map_cache_replacement_policy=system.cpu0.l2cache.prefetcher.prefetchers1.sp_address_map_cache_replacement_policy
sys=system
tag_prefetch=true
throttle_control_percentage=0
training_unit_assoc=128
training_unit_entries=128
training_unit_indexing_policy=system.cpu0.l2cache.prefetcher.prefetchers1.training_unit_indexing_policy
training_unit_replacement_policy=system.cpu0.l2cache.prefetcher.prefetchers1.training_unit_replacement_policy
use_virtual_addresses=false

[system.cpu0.l2cache.prefetcher.prefetchers1.power_state]
type=PowerState
clk_gate_bins=20
clk_gate_max=1000000000000
clk_gate_min=1000
default_state=UNDEFINED
eventq_index=0
leaders=
possible_states=

[system.cpu0.l2cache.prefetcher.prefetchers1.ps_address_map_cache_indexing_policy]
type=SetAssociative
assoc=128
entry_size=1
eventq_index=0
size=128

[system.cpu0.l2cache.prefetcher.prefetchers1.ps_address_map_cache_replacement_policy]
type=LRURP
eventq_index=0

[system.cpu0.l2cache.prefetcher.prefetchers1.sp_address_map_cache_indexing_policy]
type=SetAssociative
assoc=128
entry_size=1
eventq_index=0
size=128

[system.cpu0.l2cache.prefetcher.prefetchers1.sp_address_map_cache_replacement_policy]
type=LRURP
eventq_index=0

[system.cpu0.l2cache.prefetcher.prefetchers1.training_unit_indexing_policy]
type=SetAssociative
assoc=128
entry_size=1
eventq_index=0
size=128

[system.cpu0.l2cache.prefetcher.prefetchers1.training_unit_replacement_policy]
type=LRURP
eventq_index=0

[system.cpu0.l2cache.replacement_policy]
type=LRURP
eventq_index=0

[system.cpu0.l2cache.tags]
type=BaseSetAssoc
children=indexing_policy power_state
assoc=8
block_size=64
clk_domain=system.cpu_clk_domain
entry_size=64
eventq_index=0
indexing_policy=system.cpu0.l2cache.tags.indexing_policy
power_model=
power_state=system.cpu0.l2cache.tags.power_state
replacement_policy=system.cpu0.l2cache.replacement_policy
sequential_access=false
size=2097152
system=system
tag_latency=12
warmup_percentage=0

[system.cpu0.l2cache.tags.indexing_policy]
type=SetAssociative
assoc=8
entry_size=64
eventq_index=0
size=2097152

[system.cpu0.l2cache.tags.power_state]
type=PowerState
clk_gate_bins=20
clk_gate_max=1000000000000
clk_gate_min=1000
default_state=UNDEFINED
eventq_index=0
leaders=
possible_states=

[system.cpu0.mmu]
type=ArmMMU
children=dtb itb
dtb=system.cpu0.mmu.dtb
eventq_index=0
itb=system.cpu0.mmu.itb

[system.cpu0.mmu.dtb]
type=ArmTLB
children=stage2_mmu walker
eventq_index=0
is_stage2=false
size=64
sys=system
walker=system.cpu0.mmu.dtb.walker

[system.cpu0.mmu.dtb.stage2_mmu]
type=ArmStage2MMU
children=stage2_tlb
eventq_index=0
stage2_tlb=system.cpu0.mmu.dtb.stage2_mmu.stage2_tlb
sys=system
tlb=system.cpu0.mmu.dtb

[system.cpu0.mmu.dtb.stage2_mmu.stage2_tlb]
type=ArmTLB
children=walker
eventq_index=0
is_stage2=true
size=32
sys=system
walker=system.cpu0.mmu.dtb.stage2_mmu.stage2_tlb.walker

[system.cpu0.mmu.dtb.stage2_mmu.stage2_tlb.walker]
type=ArmTableWalker
children=power_state
clk_domain=system.cpu_clk_domain
eventq_index=0
is_stage2=true
num_squash_per_cycle=2
power_model=
power_state=system.cpu0.mmu.dtb.stage2_mmu.stage2_tlb.walker.power_state
sys=system

[system.cpu0.mmu.dtb.stage2_mmu.stage2_tlb.walker.power_state]
type=PowerState
clk_gate_bins=20
clk_gate_max=1000000000000
clk_gate_min=1000
default_state=UNDEFINED
eventq_index=0
leaders=
possible_states=

[system.cpu0.mmu.dtb.walker]
type=ArmTableWalker
children=power_state
clk_domain=system.cpu_clk_domain
eventq_index=0
is_stage2=false
num_squash_per_cycle=2
power_model=
power_state=system.cpu0.mmu.dtb.walker.power_state
sys=system
port=system.cpu0.toL2Bus.cpu_side_ports[3]

[system.cpu0.mmu.dtb.walker.power_state]
type=PowerState
clk_gate_bins=20
clk_gate_max=1000000000000
clk_gate_min=1000
default_state=UNDEFINED
eventq_index=0
leaders=
possible_states=

[system.cpu0.mmu.itb]
type=ArmTLB
children=stage2_mmu walker
eventq_index=0
is_stage2=false
size=64
sys=system
walker=system.cpu0.mmu.itb.walker

[system.cpu0.mmu.itb.stage2_mmu]
type=ArmStage2MMU
children=stage2_tlb
eventq_index=0
stage2_tlb=system.cpu0.mmu.itb.stage2_mmu.stage2_tlb
sys=system
tlb=system.cpu0.mmu.itb

[system.cpu0.mmu.itb.stage2_mmu.stage2_tlb]
type=ArmTLB
children=walker
eventq_index=0
is_stage2=true
size=32
sys=system
walker=system.cpu0.mmu.itb.stage2_mmu.stage2_tlb.walker

[system.cpu0.mmu.itb.stage2_mmu.stage2_tlb.walker]
type=ArmTableWalker
children=power_state
clk_domain=system.cpu_clk_domain
eventq_index=0
is_stage2=true
num_squash_per_cycle=2
power_model=
power_state=system.cpu0.mmu.itb.stage2_mmu.stage2_tlb.walker.power_state
sys=system

[system.cpu0.mmu.itb.stage2_mmu.stage2_tlb.walker.power_state]
type=PowerState
clk_gate_bins=20
clk_gate_max=1000000000000
clk_gate_min=1000
default_state=UNDEFINED
eventq_index=0
leaders=
possible_states=

[system.cpu0.mmu.itb.walker]
type=ArmTableWalker
children=power_state
clk_domain=system.cpu_clk_domain
eventq_index=0
is_stage2=false
num_squash_per_cycle=2
power_model=
power_state=system.cpu0.mmu.itb.walker.power_state
sys=system
port=system.cpu0.toL2Bus.cpu_side_ports[2]

[system.cpu0.mmu.itb.walker.power_state]
type=PowerState
clk_gate_bins=20
clk_gate_max=1000000000000
clk_gate_min=1000
default_state=UNDEFINED
eventq_index=0
leaders=
possible_states=

[system.cpu0.power_state]
type=PowerState
clk_gate_bins=20
clk_gate_max=1000000000000
clk_gate_min=1000
default_state=UNDEFINED
eventq_index=0
leaders=
possible_states=ON CLK_GATED OFF

[system.cpu0.toL2Bus]
type=CoherentXBar
children=power_state snoop_filter
clk_domain=system.cpu_clk_domain
eventq_index=0
forward_latency=0
frontend_latency=1
header_latency=1
max_outstanding_snoops=512
max_routing_table_size=512
point_of_coherency=false
point_of_unification=true
power_model=
power_state=system.cpu0.toL2Bus.power_state
response_latency=1
snoop_filter=system.cpu0.toL2Bus.snoop_filter
snoop_response_latency=1
system=system
use_default_range=false
width=32
cpu_side_ports=system.cpu0.icache.mem_side system.cpu0.dcache.mem_side system.cpu0.mmu.itb.walker.port system.cpu0.mmu.dtb.walker.port
mem_side_ports=system.cpu0.l2cache.cpu_side

[system.cpu0.toL2Bus.power_state]
type=PowerState
clk_gate_bins=20
clk_gate_max=1000000000000
clk_gate_min=1000
default_state=UNDEFINED
eventq_index=0
leaders=
possible_states=

[system.cpu0.toL2Bus.snoop_filter]
type=SnoopFilter
eventq_index=0
lookup_latency=0
max_capacity=134217728
system=system

[system.cpu0.tracer]
type=ExeTracer
eventq_index=0

[system.cpu1]
type=AtomicSimpleCPU
children=dcache icache interrupts isa l2cache mmu power_state toL2Bus tracer
branchPred=Null
checker=Null
clk_domain=system.cpu_clk_domain
cpu_id=1
do_checkpoint_insts=true
do_statistics_insts=true
eventq_index=0
function_trace=false
function_trace_start=0
interrupts=system.cpu1.interrupts
isa=system.cpu1.isa
max_insts_all_threads=0
max_insts_any_thread=0
mmu=system.cpu1.mmu
numThreads=1
power_gating_on_idle=false
power_model=
power_state=system.cpu1.power_state
progress_interval=0
pwr_gating_latency=300
simpoint_start_insts=
simulate_data_stalls=false
simulate_inst_stalls=false
socket_id=0
switched_out=false
syscallRetryLatency=10000
system=system
tracer=system.cpu1.tracer
wait_for_remote_gdb=false
width=1
workload=
dcache_port=system.cpu1.dcache.cpu_side
icache_port=system.cpu1.icache.cpu_side

[system.cpu1.dcache]
type=Cache
children=power_state prefetcher replacement_policy tags
addr_ranges=0:18446744073709551615
assoc=4
clk_domain=system.cpu_clk_domain
clusivity=mostly_incl
compressor=Null
data_latency=4
demand_mshr_reserve=1
eventq_index=0
is_read_only=false
max_miss_count=0
move_contractions=true
mshrs=10
power_model=
power_state=system.cpu1.dcache.power_state
prefetch_on_access=false
prefetcher=system.cpu1.dcache.prefetcher
replace_expansions=true
replacement_policy=system.cpu1.dcache.replacement_policy
response_latency=0
sequential_access=false
size=65536
system=system
tag_latency=4
tags=system.cpu1.dcache.tags
tgts_per_mshr=20
warmup_percentage=0
write_allocator=Null
write_buffers=8
writeback_clean=false
cpu_side=system.cpu1.dcache_port
mem_side=system.cpu1.toL2Bus.cpu_side_ports[1]

[system.cpu1.dcache.power_state]
type=PowerState
clk_gate_bins=20
clk_gate_max=1000000000000
clk_gate_min=1000
default_state=UNDEFINED
eventq_index=0
leaders=
possible_states=

[system.cpu1.dcache.prefetcher]
type=MultiPrefetcher
children=power_state prefetchers0 prefetchers1
block_size=64
clk_domain=system.cpu_clk_domain
eventq_index=0
on_data=true
on_inst=true
on_miss=false
on_read=true
on_write=true
power_model=
power_state=system.cpu1.dcache.prefetcher.power_state
prefetch_on_access=false
prefetchers=system.cpu1.dcache.prefetcher.prefetchers0 system.cpu1.dcache.prefetcher.prefetchers1
sys=system
use_virtual_addresses=false

[system.cpu1.dcache.prefetcher.power_state]
type=PowerState
clk_gate_bins=20
clk_gate_max=1000000000000
clk_gate_min=1000
default_state=UNDEFINED
eventq_index=0
leaders=
possible_states=

[system.cpu1.dcache.prefetcher.prefetchers0]
type=DCPTPrefetcher
children=dcpt power_state
block_size=64
cache_snoop=false
clk_domain=system.cpu_clk_domain
dcpt=system.cpu1.dcache.prefetcher.prefetchers0.dcpt
eventq_index=0
latency=1
max_prefetch_requests_with_pending_translation=32
on_data=true
on_inst=true
on_miss=false
on_read=true
on_write=true
power_model=
power_state=system.cpu1.dcache.prefetcher.prefetchers0.power_state
prefetch_on_access=false
queue_filter=true
queue_size=32
queue_squash=true
sys=system
tag_prefetch=true
throttle_control_percentage=0
use_virtual_addresses=false

[system.cpu1.dcache.prefetcher.prefetchers0.dcpt]
type=DeltaCorrelatingPredictionTables
children=table_indexing_policy table_replacement_policy
delta_bits=12
delta_mask_bits=8
deltas_per_entry=20
eventq_index=0
table_assoc=128
table_entries=128
table_indexing_policy=system.cpu1.dcache.prefetcher.prefetchers0.dcpt.table_indexing_policy
table_replacement_policy=system.cpu1.dcache.prefetcher.prefetchers0.dcpt.table_replacement_policy

[system.cpu1.dcache.prefetcher.prefetchers0.dcpt.table_indexing_policy]
type=SetAssociative
assoc=128
entry_size=1
eventq_index=0
size=128

[system.cpu1.dcache.prefetcher.prefetchers0.dcpt.table_replacement_policy]
type=LRURP
eventq_index=0

[system.cpu1.dcache.prefetcher.prefetchers0.power_state]
type=PowerState
clk_gate_bins=20
clk_gate_max=1000000000000
clk_gate_min=1000
default_state=UNDEFINED
eventq_index=0
leaders=
possible_states=

[system.cpu1.dcache.prefetcher.prefetchers1]
type=TaggedPrefetcher
children=power_state
block_size=64
cache_snoop=false
clk_domain=system.cpu_clk_domain
degree=2
eventq_index=0
latency=1
max_prefetch_requests_with_pending_translation=32
on_data=true
on_inst=true
on_miss=false
on_read=true
on_write=true
power_model=
power_state=system.cpu1.dcache.prefetcher.prefetchers1.power_state
prefetch_on_access=false
queue_filter=true
queue_size=32
queue_squash=true
sys=system
tag_prefetch=true
throttle_control_percentage=0
use_virtual_addresses=false

[system.cpu1.dcache.prefetcher.prefetchers1.power_state]
type=PowerState
clk_gate_bins=20
clk_gate_max=1000000000000
clk_gate_min=1000
default_state=UNDEFINED
eventq_index=0
leaders=
possible_states=

[system.cpu1.dcache.replacement_policy]
type=LRURP
eventq_index=0

[system.cpu1.dcache.tags]
type=BaseSetAssoc
children=indexing_policy power_state
assoc=4
block_size=64
clk_domain=system.cpu_clk_domain
entry_size=64
eventq_index=0
indexing_policy=system.cpu1.dcache.tags.indexing_policy
power_model=
power_state=system.cpu1.dcache.tags.power_state
replacement_policy=system.cpu1.dcache.replacement_policy
sequential_access=false
size=65536
system=system
tag_latency=4
warmup_percentage=0

[system.cpu1.dcache.tags.indexing_policy]
type=SetAssociative
assoc=4
entry_size=64
eventq_index=0
size=65536

[system.cpu1.dcache.tags.power_state]
type=PowerState
clk_gate_bins=20
clk_gate_max=1000000000000
clk_gate_min=1000
default_state=UNDEFINED
eventq_index=0
leaders=
possible_states=

[system.cpu1.icache]
type=Cache
children=power_state replacement_policy tags
addr_ranges=0:18446744073709551615
assoc=4
clk_domain=system.cpu_clk_domain
clusivity=mostly_incl
compressor=Null
data_latency=4
demand_mshr_reserve=1
eventq_index=0
is_read_only=true
max_miss_count=0
move_contractions=true
mshrs=10
power_model=
power_state=system.cpu1.icache.power_state
prefetch_on_access=false
prefetcher=Null
replace_expansions=true
replacement_policy=system.cpu1.icache.replacement_policy
response_latency=0
sequential_access=false
size=32768
system=system
tag_latency=4
tags=system.cpu1.icache.tags
tgts_per_mshr=20
warmup_percentage=0
write_allocator=Null
write_buffers=8
writeback_clean=true
cpu_side=system.cpu1.icache_port
mem_side=system.cpu1.toL2Bus.cpu_side_ports[0]

[system.cpu1.icache.power_state]
type=PowerState
clk_gate_bins=20
clk_gate_max=1000000000000
clk_gate_min=1000
default_state=UNDEFINED
eventq_index=0
leaders=
possible_states=

[system.cpu1.icache.replacement_policy]
type=LRURP
eventq_index=0

[system.cpu1.icache.tags]
type=BaseSetAssoc
children=indexing_policy power_state
assoc=4
block_size=64
clk_domain=system.cpu_clk_domain
entry_size=64
eventq_index=0
indexing_policy=system.cpu1.icache.tags.indexing_policy
power_model=
power_state=system.cpu1.icache.tags.power_state
replacement_policy=system.cpu1.icache.replacement_policy
sequential_access=false
size=32768
system=system
tag_latency=4
warmup_percentage=0

[system.cpu1.icache.tags.indexing_policy]
type=SetAssociative
assoc=4
entry_size=64
eventq_index=0
size=32768

[system.cpu1.icache.tags.power_state]
type=PowerState
clk_gate_bins=20
clk_gate_max=1000000000000
clk_gate_min=1000
default_state=UNDEFINED
eventq_index=0
leaders=
possible_states=

[system.cpu1.interrupts]
type=ArmInterrupts
eventq_index=0

[system.cpu1.isa]
type=ArmISA
decoderFlavor=Generic
eventq_index=0
fpsid=1090793632
id_aa64afr0_el1=0
id_aa64afr1_el1=0
id_aa64dfr0_el1=15790086
id_aa64dfr1_el1=0
id_aa64isar0_el1=268435456
id_aa64isar1_el1=16846864
id_aa64mmfr0_el1=15728642
id_aa64mmfr1_el1=1052672
id_aa64mmfr2_el1=65536
id_isar0=34607377
id_isar1=34677009
id_isar2=555950401
id_isar3=17899825
id_isar4=268501314
id_isar5=285212672
id_isar6=1
id_mmfr0=270536963
id_mmfr1=0
id_mmfr2=19070976
id_mmfr3=34611729
id_mmfr4=0
impdef_nop=false
midr=0
pmu=Null
sve_vl_se=1
system=system

[system.cpu1.l2cache]
type=Cache
children=power_state prefetcher replacement_policy tags
addr_ranges=0:18446744073709551615
assoc=8
clk_domain=system.cpu_clk_domain
clusivity=mostly_incl
compressor=Null
data_latency=12
demand_mshr_reserve=1
eventq_index=0
is_read_only=false
max_miss_count=0
move_contractions=true
mshrs=20
power_model=
power_state=system.cpu1.l2cache.power_state
prefetch_on_access=false
prefetcher=system.cpu1.l2cache.prefetcher
replace_expansions=true
replacement_policy=system.cpu1.l2cache.replacement_policy
response_latency=0
sequential_access=false
size=2097152
system=system
tag_latency=12
tags=system.cpu1.l2cache.tags
tgts_per_mshr=12
warmup_percentage=0
write_allocator=Null
write_buffers=16
writeback_clean=false
cpu_side=system.cpu1.toL2Bus.mem_side_ports[0]
mem_side=system.tol3bus.cpu_side_ports[1]

[system.cpu1.l2cache.power_state]
type=PowerState
clk_gate_bins=20
clk_gate_max=1000000000000
clk_gate_min=1000
default_state=UNDEFINED
eventq_index=0
leaders=
possible_states=

[system.cpu1.l2cache.prefetcher]
type=MultiPrefetcher
children=power_state prefetchers0 prefetchers1
block_size=64
clk_domain=system.cpu_clk_domain
eventq_index=0
on_data=true
on_inst=true
on_miss=false
on_read=true
on_write=true
power_model=
power_state=system.cpu1.l2cache.prefetcher.power_state
prefetch_on_access=false
prefetchers=system.cpu1.l2cache.prefetcher.prefetchers0 system.cpu1.l2cache.prefetcher.prefetchers1
sys=system
use_virtual_addresses=false

[system.cpu1.l2cache.prefetcher.power_state]
type=PowerState